@<TRIPOS>MOLECULE
*****
 23 23 0 0 0
SMALL
GASTEIGER

@<TRIPOS>ATOM
      1 C          67.8420   31.7830   38.3730 C.3  1449  G2F1449     0.0767
      2 C          67.8800   31.9430   39.9300 C.3  1449  G2F1449     0.1068
      3 C          69.0540   31.1130   40.4890 C.3  1449  G2F1449     0.1115
      4 C          69.0000   29.6200   40.0450 C.3  1449  G2F1449     0.1117
      5 C          68.8200   29.5740   38.4900 C.3  1449  G2F1449     0.1100
      6 C          68.6080   28.1890   37.8720 C.3  1449  G2F1449     0.0729
      7 O          68.9940   31.1880   41.9040 O.3  1449  G2F1449    -0.3865
      8 O          70.1620   28.9050   40.5170 O.3  1449  G2F1449    -0.3865
      9 O          67.6860   30.3780   38.0990 O.3  1449  G2F1449    -0.3690
     10 O          67.5240   27.5050   38.4900 O.3  1449  G2F1449    -0.3924
     11 O          67.9310   33.3370   40.3830 O.3  1449  G2F1449    -0.3869
     12 H          67.0171   32.3305   37.9672 H       1  LIG1        0.0586
     13 H          68.7380   32.1622   37.9277 H       1  LIG1        0.0586
     14 H          66.9547   31.5709   40.3176 H       1  LIG1        0.0643
     15 H          69.9693   31.5138   40.1062 H       1  LIG1        0.0647
     16 H          68.1630   29.1195   40.4852 H       1  LIG1        0.0647
     17 H          69.7549   29.9419   38.1217 H       1  LIG1        0.0646
     18 H          69.5003   27.6118   37.9968 H       1  LIG1        0.0584
     19 H          68.3791   28.3148   36.8344 H       1  LIG1        0.0584
     20 H          68.1527   30.8163   42.2121 H       1  LIG1        0.2100
     21 H          70.9628   29.3120   40.1510 H       1  LIG1        0.2100
     22 H          67.7148   27.3821   39.4331 H       1  LIG1        0.2095
     23 H          68.7506   33.7495   40.0683 H       1  LIG1        0.2100
@<TRIPOS>BOND
     1     6     5    1
     2     6    10    1
     3     9     1    1
     4     9     5    1
     5     1     2    1
     6     5     4    1
     7     2    11    1
     8     2     3    1
     9     4     3    1
    10     4     8    1
    11     3     7    1
    12     1    12    1
    13     1    13    1
    14     2    14    1
    15     3    15    1
    16     4    16    1
    17     5    17    1
    18     6    18    1
    19     6    19    1
    20     7    20    1
    21     8    21    1
    22    10    22    1
    23    11    23    1
